REMARK  Name = C:\Users\klair\Desktop\AutomatedDocking\Automated-Docking\djangoProject\docking_project\media\ligand_3d_jiNTXGP.pdb
REMARK  23 active torsions:
REMARK  status: ('A' for Active; 'I' for Inactive)
REMARK    1  A    between atoms: _4  and  _7
REMARK    2  A    between atoms: _7  and  _8
REMARK    3  A    between atoms: _8  and  _9
REMARK    4  A    between atoms: _9  and  _11
REMARK    5  A    between atoms: _11  and  _12
REMARK    6  A    between atoms: _15  and  _18
REMARK    7  A    between atoms: _18  and  _19
REMARK    8  A    between atoms: _19  and  _20
REMARK    9  A    between atoms: _20  and  _22
REMARK   10  A    between atoms: _22  and  _23
REMARK   11  A    between atoms: _23  and  _24
REMARK   12  A    between atoms: _24  and  _25
REMARK   13  A    between atoms: _25  and  _26
REMARK   14  A    between atoms: _26  and  _27
REMARK   15  A    between atoms: _27  and  _28
REMARK   16  A    between atoms: _28  and  _29
REMARK   17  A    between atoms: _29  and  _30
REMARK   18  A    between atoms: _30  and  _31
REMARK   19  A    between atoms: _31  and  _32
REMARK   20  A    between atoms: _32  and  _33
REMARK   21  A    between atoms: _33  and  _34
REMARK   22  A    between atoms: _34  and  _35
REMARK   23  A    between atoms: _35  and  _37
REMARK                            x       y       z     vdW  Elec       q    Type
REMARK                         _______ _______ _______ _____ _____    ______ ____
ROOT
ATOM      1  C   UNL     1       1.704  -1.629   4.220  0.00  0.00    +0.222 C 
ENDROOT
BRANCH   1   2
ATOM      2  N   UNL     1       2.635  -0.565   4.088  0.00  0.00    -0.334 N 
ATOM      3  H   UNL     1       2.906   0.005   4.914  0.00  0.00    +0.147 HD
BRANCH   2   7
ATOM      4  C   UNL     1       4.310   0.317   0.400  0.00  0.00    +0.132 A 
ATOM      5  C   UNL     1       4.647   1.083   1.493  0.00  0.00    +0.048 A 
ATOM      6  C   UNL     1       4.117   0.820   2.718  0.00  0.00    +0.026 A 
ATOM      7  C   UNL     1       3.219  -0.250   2.835  0.00  0.00    +0.028 A 
ATOM      8  C   UNL     1       2.884  -1.013   1.741  0.00  0.00    +0.026 A 
ATOM      9  C   UNL     1       3.431  -0.728   0.521  0.00  0.00    +0.048 A 
BRANCH   4  10
ATOM     10  O   UNL     1       4.852   0.588  -0.845  0.00  0.00    -0.425 OA
BRANCH  10  11
ATOM     11  C   UNL     1       6.053   0.022  -1.233  0.00  0.00    +0.330 C 
ATOM     12  O   UNL     1       6.604  -0.744  -0.382  0.00  0.00    -0.249 OA
BRANCH  11  13
ATOM     13  C   UNL     1       6.669   0.292  -2.568  0.00  0.00    +0.223 C 
BRANCH  13  14
ATOM     14  N   UNL     1       7.937  -0.374  -2.706  0.00  0.00    -0.334 N 
ATOM     15  H   UNL     1       8.049  -1.134  -3.430  0.00  0.00    +0.147 HD
BRANCH  14  19
ATOM     16  C   UNL     1      11.127   0.711  -0.214  0.00  0.00    +0.000 A 
ATOM     17  C   UNL     1      11.282  -0.315  -1.139  0.00  0.00    +0.002 A 
ATOM     18  C   UNL     1      10.236  -0.690  -1.981  0.00  0.00    +0.023 A 
ATOM     19  C   UNL     1       9.036  -0.025  -1.885  0.00  0.00    +0.028 A 
ATOM     20  C   UNL     1       8.899   0.988  -0.966  0.00  0.00    +0.023 A 
ATOM     21  C   UNL     1       9.933   1.368  -0.124  0.00  0.00    +0.002 A 
ENDBRANCH  14  19
ENDBRANCH  13  14
ENDBRANCH  11  13
ENDBRANCH  10  11
ENDBRANCH   4  10
ENDBRANCH   2   7
ENDBRANCH   1   2
BRANCH   1  22
ATOM     22  C   UNL     1       0.440  -1.405   3.469  0.00  0.00    +0.324 C 
ATOM     23  O   UNL     1      -0.460  -2.277   3.479  0.00  0.00    -0.249 OA
BRANCH  22  24
ATOM     24  O   UNL     1       0.201  -0.244   2.740  0.00  0.00    -0.464 OA
BRANCH  24  25
ATOM     25  C   UNL     1      -1.078  -0.124   2.040  0.00  0.00    +0.232 C 
BRANCH  25  26
ATOM     26  C   UNL     1      -1.054   1.189   1.368  0.00  0.00    +0.041 C 
BRANCH  26  27
ATOM     27  C   UNL     1      -2.165   1.635   0.533  0.00  0.00    +0.003 C 
BRANCH  27  28
ATOM     28  C   UNL     1      -3.521   1.841   1.050  0.00  0.00    +0.001 C 
BRANCH  28  29
ATOM     29  C   UNL     1      -4.235   0.677   1.608  0.00  0.00    +0.015 C 
BRANCH  29  30
ATOM     30  C   UNL     1      -4.397  -0.478   0.654  0.00  0.00    +0.081 C 
BRANCH  30  31
ATOM     31  N   UNL     1      -5.150  -0.105  -0.527  0.00  0.00    -0.316 NA
ATOM     32  H   UNL     1      -4.866   0.788  -0.931  0.00  0.00    +0.122 HD
BRANCH  31  33
ATOM     33  C   UNL     1      -5.321  -1.175  -1.454  0.00  0.00    +0.081 C 
BRANCH  33  34
ATOM     34  C   UNL     1      -6.158  -0.612  -2.612  0.00  0.00    +0.015 C 
BRANCH  34  35
ATOM     35  C   UNL     1      -7.485  -0.152  -1.987  0.00  0.00    +0.002 C 
BRANCH  35  36
ATOM     36  C   UNL     1      -8.382   0.416  -3.027  0.00  0.00    +0.011 C 
BRANCH  36  37
ATOM     37  C   UNL     1      -9.694   0.880  -2.489  0.00  0.00    +0.120 C 
BRANCH  37  38
ATOM     38  C   UNL     1     -10.450  -0.218  -1.901  0.00  0.00    +0.305 C 
ATOM     39  O   UNL     1     -10.030  -1.391  -1.927  0.00  0.00    -0.251 OA
BRANCH  38  40
ATOM     40  O   UNL     1     -11.688  -0.011  -1.273  0.00  0.00    -0.481 OA
ATOM     41  H   UNL     1     -12.153  -0.782  -0.793  0.00  0.00    +0.295 HD
ENDBRANCH  38  40
ENDBRANCH  37  38
ENDBRANCH  36  37
ENDBRANCH  35  36
ENDBRANCH  34  35
ENDBRANCH  33  34
ENDBRANCH  31  33
ENDBRANCH  30  31
ENDBRANCH  29  30
ENDBRANCH  28  29
ENDBRANCH  27  28
ENDBRANCH  26  27
ENDBRANCH  25  26
ENDBRANCH  24  25
ENDBRANCH  22  24
ENDBRANCH   1  22
TORSDOF 23
